35

C     -2.992020    1.916680   -6.513117
C     -2.503219    2.232766   -5.220700
C     -2.140627    1.038114   -4.626338
O     -2.385883    0.011056   -5.496202
C     -2.899540    0.550394   -6.632140
Br    -3.412265   -0.458408   -8.160506
C     -0.479238   -0.039566   -0.782205
C     -0.752753    1.295706   -1.119808
C     -1.292240    1.644035   -2.368490
C     -1.579332    0.669084   -3.328865
C     -1.310260   -0.663991   -3.001688
C     -0.771044   -1.010657   -1.753258
C      0.409080   -1.701465    0.996515
C      0.942968   -1.700375    2.320356
C      1.033453   -0.433434    2.867567
S      0.459322    0.728139    1.740257
C      0.090950   -0.436891    0.530099
C      2.421839    0.880769    6.644514
C      2.451912   -0.479378    6.372314
C      1.998691   -0.935709    5.132408
C      1.526251   -0.015935    4.195671
N      1.495323    1.314857    4.458258
C      1.940093    1.733252    5.667549
Br     3.022087    1.545073    8.301927
H     -3.364278    2.601850   -7.261344
H     -2.426282    3.216223   -4.779225
H     -0.554279    2.105254   -0.421295
H     -1.481313    2.695739   -2.569068
H     -1.516944   -1.458364   -3.716642
H     -0.587038   -2.064848   -1.565868
H      0.271131   -2.609098    0.423210
H      1.242864   -2.605081    2.833266
H      2.821379   -1.188602    7.107463
H      2.022704   -1.998626    4.920985
H      1.891953    2.807305    5.822028
