35

C     -3.047330   -0.176614   -7.335053
C     -2.400157    0.613969   -6.354575
C     -1.913732   -0.256485   -5.397560
O     -2.232593   -1.540549   -5.746235
C     -2.917822   -1.481230   -6.919059
Br    -3.594769   -3.001252   -7.840488
C      0.254662    0.458095   -1.821790
C     -0.069624   -0.857841   -2.174925
C     -0.783502   -1.129132   -3.346732
C     -1.168815   -0.072729   -4.159893
N     -0.877990    1.213592   -3.859147
C     -0.183263    1.439871   -2.713120
C      1.386357    2.065934   -0.141247
C      2.107222    2.021560    1.089893
C      2.281687    0.738636    1.579130
S      1.549399   -0.384097    0.504086
C      1.006893    0.816209   -0.597889
C      4.298232   -0.492759    5.189540
C      4.219163    0.853028    4.852830
C      3.561597    1.239471    3.677794
C      2.971424    0.294503    2.817486
C      3.070102   -1.059497    3.188759
C      3.726515   -1.452067    4.362743
Br     5.183921   -1.018511    6.773022
H     -3.544838    0.165177   -8.231451
H     -2.292481    1.689983   -6.333365
H      0.220510   -1.701991   -1.555313
H     -1.027958   -2.153988   -3.607981
H      0.012282    2.494079   -2.539332
H      1.166782    2.994093   -0.653775
H      2.475589    2.912733    1.581619
H      4.662706    1.611990    5.492069
H      3.523451    2.301959    3.453209
H      2.638901   -1.846275    2.574682
H      3.781954   -2.507744    4.615702
