35

C     -6.161792   -3.619775    2.663871
C     -4.894568   -3.052369    2.332014
C     -3.855771   -3.599375    3.065722
S     -4.433570   -4.797340    4.150377
C     -6.031244   -4.575585    3.637546
Br    -7.503991   -5.563496    4.349650
C     -1.365749   -3.730557    3.651858
C     -0.225627   -3.038672    3.173053
C     -0.673827   -2.155627    2.213555
O     -2.027607   -2.279998    2.089334
C     -2.465555   -3.242333    2.965408
C      1.250516    0.769794   -0.341134
C     -0.139967    0.549292   -0.376493
C     -0.768421   -0.396021    0.447806
C     -0.031205   -1.167955    1.349753
C      1.351375   -0.963056    1.399168
C      1.977462   -0.014943    0.571648
C      2.877294    3.707693   -2.962689
C      3.752177    3.030137   -2.129037
C      3.251045    2.059432   -1.256193
C      1.881009    1.782197   -1.231722
N      1.028154    2.452374   -2.053987
C      1.535279    3.389304   -2.892174
Br     3.503407    5.023614   -4.155705
H     -7.101854   -3.334502    2.208341
H     -4.749239   -2.277103    1.588258
H     -1.380003   -4.498767    4.412612
H      0.796817   -3.174072    3.494740
H     -0.764357    1.123155   -1.060948
H     -1.847000   -0.515841    0.369495
H      1.971560   -1.537305    2.083228
H      3.054428    0.085182    0.669195
H      4.817306    3.242818   -2.145258
H      3.951177    1.540676   -0.612364
H      0.799048    3.884121   -3.518804
