35

C      5.479156    3.502211   -1.343063
C      4.317116    2.728442   -1.044493
C      4.504740    1.374784   -1.267767
S      6.093675    1.060322   -1.836162
C      6.502760    2.701769   -1.779715
Br     8.223482    3.367511   -2.277786
C      3.624329   -1.030420   -1.277927
C      2.378255   -1.601710   -0.926038
C      1.572913   -0.563246   -0.511364
O      2.267323    0.610037   -0.593361
C      3.529152    0.336312   -1.065395
C     -2.440893   -0.518599    0.820966
C     -1.725574    0.683310    0.788606
C     -0.397984    0.703905    0.357312
C      0.198089   -0.487607   -0.037105
N     -0.458966   -1.671981   -0.015038
C     -1.747715   -1.656201    0.406721
C     -6.530182   -0.693312    2.088815
C     -6.146391    0.221485    1.112748
C     -4.810335    0.277633    0.702926
C     -3.842403   -0.577549    1.259301
C     -4.257259   -1.490955    2.244256
C     -5.591981   -1.550002    2.657824
Br    -8.334980   -0.774343    2.643055
H      5.545769    4.578150   -1.239270
H      3.383865    3.145256   -0.683432
H      4.491818   -1.559212   -1.647753
H      2.089204   -2.642935   -0.967816
H     -2.191277    1.612742    1.108118
H      0.152606    1.638525    0.335379
H     -2.231929   -2.630156    0.388069
H     -6.874073    0.891884    0.662703
H     -4.531201    0.990954   -0.071021
H     -3.537270   -2.161496    2.710986
H     -5.884412   -2.264260    3.423211
