35

C      6.157865   -1.694718   -0.733686
C      4.857759   -1.124391   -0.871801
C      3.847558   -1.925577   -0.353325
S      4.518758   -3.372558    0.299600
C      6.092544   -2.913606   -0.113130
Br     7.625727   -3.994648    0.250915
C     -0.293390   -0.943583   -0.443892
C      0.100286   -2.120894    0.198748
C      1.449328   -2.482764    0.254831
C      2.398274   -1.655411   -0.336632
N      2.048709   -0.504952   -0.963136
C      0.731509   -0.182739   -1.002084
C     -4.435109    0.250992   -0.706548
C     -3.456574    1.135600   -0.234365
C     -2.112668    0.748768   -0.147481
C     -1.702399   -0.536284   -0.529918
C     -2.684291   -1.420272   -1.001486
C     -4.028382   -1.033251   -1.089721
C     -7.001443    0.012005   -1.194464
C     -8.053184    0.951371   -1.048154
C     -7.472202    2.103606   -0.574003
O     -6.133978    1.928613   -0.419456
C     -5.838848    0.647407   -0.798061
Br    -8.393213    3.721611   -0.186382
H      7.073278   -1.227698   -1.075043
H      4.660400   -0.164012   -1.336664
H     -0.638253   -2.764223    0.672147
H      1.724863   -3.400480    0.760943
H      0.517361    0.743720   -1.530084
H     -3.728746    2.142393    0.077544
H     -1.390320    1.466464    0.237404
H     -2.408924   -2.423562   -1.321683
H     -4.748255   -1.755098   -1.467778
H     -7.085756   -1.006331   -1.547428
H     -9.101847    0.804081   -1.264921
