35

C      3.338718    2.727521    0.136499
C      3.598973    3.786201    1.026878
C      4.822356    4.468602    1.018913
C      5.812032    4.101790    0.115169
C      5.588317    3.061021   -0.777864
C      4.362653    2.382169   -0.765166
Br     7.463284    5.019114    0.100737
C      0.938261    2.253263    0.996622
C     -0.156522    1.374823    0.742239
C      0.107880    0.483188   -0.274293
S      1.675935    0.724967   -0.902558
C      2.030172    2.025338    0.172098
C     -0.606555   -1.462178   -1.780261
C     -1.795406   -2.225062   -1.869975
C     -2.653579   -1.729095   -0.912608
O     -2.045914   -0.703733   -0.246208
C     -0.786584   -0.529532   -0.770242
C     -6.560199   -2.848398    0.147592
C     -5.975860   -1.801292    0.848136
C     -4.678896   -1.405941    0.519356
C     -4.008100   -2.073873   -0.502711
N     -4.566300   -3.099003   -1.196201
C     -5.826868   -3.461504   -0.855401
Br    -8.309321   -3.419361    0.554077
H      2.853393    4.105787    1.749922
H      4.986275    5.281113    1.721981
H      6.354885    2.765078   -1.489407
H      4.234997    1.575353   -1.482657
H      0.905871    3.018243    1.761572
H     -1.095079    1.398997    1.283243
H      0.281017   -1.581540   -2.386059
H     -2.012331   -3.040301   -2.546548
H     -6.511775   -1.290209    1.642666
H     -4.206017   -0.589591    1.055973
H     -6.235419   -4.284906   -1.434368
