35

C     -1.209546    2.655387    1.642030
C     -2.400483    3.383919    1.821537
C     -2.587955    4.223777    2.926966
C     -1.581835    4.350058    3.877142
C     -0.393424    3.645156    3.730835
C     -0.211801    2.806737    2.623091
Br    -1.830477    5.481477    5.369344
C     -1.927458    1.526884   -0.578366
C     -1.421057    0.613427   -1.551404
C     -0.147498    0.160454   -1.259033
S      0.398266    0.869020    0.207074
C     -1.042830    1.773444    0.458328
C      2.417566   -2.540934   -3.327625
C      1.157921   -2.254773   -3.857334
C      0.297396   -1.371650   -3.197756
C      0.709908   -0.780592   -2.007061
N      1.926578   -1.041719   -1.472725
C      2.739581   -1.902668   -2.135407
C      4.620200   -3.911122   -3.693445
C      4.981101   -4.798747   -4.738442
C      3.909788   -4.831507   -5.599159
O      2.917199   -4.021101   -5.147691
C      3.347105   -3.454157   -3.979632
Br     3.812054   -5.857389   -7.197193
H     -3.212520    3.314540    1.102993
H     -3.521524    4.770360    3.031283
H      0.401094    3.735355    4.467020
H      0.734508    2.275588    2.551379
H     -2.909183    1.975863   -0.655467
H     -1.984773    0.312792   -2.425204
H      0.830523   -2.713954   -4.787622
H     -0.675438   -1.165270   -3.628575
H      3.696408   -2.061179   -1.645601
H      5.222599   -3.641945   -2.836958
H      5.907617   -5.344729   -4.847200
