35

C     -1.529573    4.014573    2.181127
C     -2.563124    3.581242    1.344064
C     -3.755830    4.302413    1.266899
C     -3.884382    5.448141    2.035858
N     -2.914811    5.903420    2.856600
C     -1.769021    5.178850    2.907611
Br    -5.497843    6.438853    1.942467
C      0.893289    3.476152    3.012231
C      1.754558    2.404549    2.667051
C      1.083796    1.610633    1.750674
O     -0.151732    2.167129    1.532050
C     -0.268453    3.293353    2.292791
C      2.738716   -0.235347    1.242453
C      2.831740   -1.409188    0.435142
C      1.692727   -1.653579   -0.317544
S      0.527136   -0.422365   -0.009817
C      1.528044    0.406777    1.098757
C      0.947334   -4.902103   -3.057784
C     -0.033844   -3.939889   -2.852580
C      0.201341   -2.882234   -1.964199
C      1.416961   -2.764070   -1.264864
C      2.388568   -3.755864   -1.496430
C      2.159195   -4.815633   -2.383409
Br     0.633712   -6.329415   -4.254757
H     -2.449949    2.679859    0.745173
H     -4.556807    3.966005    0.617769
H     -1.022931    5.589222    3.582868
H      1.104946    4.279489    3.703731
H      2.752321    2.232971    3.045805
H      3.532659    0.108670    1.893500
H      3.712124   -2.038729    0.421312
H     -0.985732   -3.996785   -3.374271
H     -0.596270   -2.154286   -1.836867
H      3.349773   -3.727119   -0.990540
H      2.933769   -5.562638   -2.536243
