35

C      2.988056   -0.405834   -2.851233
C      2.959369    0.061224   -4.170787
C      4.056369   -0.132288   -5.011411
C      5.164163   -0.795891   -4.508315
N      5.238868   -1.263011   -3.245816
C      4.158223   -1.055116   -2.454316
Br     6.659497   -1.072368   -5.641321
C     -0.360596    0.117833   -0.175354
C      0.182661    1.203976   -0.874284
C      1.268373    1.034733   -1.743445
C      1.850220   -0.226242   -1.939140
C      1.306468   -1.311524   -1.235780
C      0.217985   -1.142675   -0.369168
C     -2.186242   -0.547060    1.582575
C     -3.198966    0.239609    2.186009
C     -3.087981    1.521953    1.673802
O     -2.042204    1.535600    0.785745
C     -1.495090    0.287039    0.729656
C     -4.950177    2.789718    2.841108
C     -5.507418    4.104978    2.874039
C     -4.835968    4.945769    2.025066
S     -3.569149    4.190641    1.196413
C     -3.882788    2.685783    1.965218
Br    -5.282933    6.789804    1.795782
H      2.077102    0.566733   -4.558411
H      4.031569    0.226847   -6.033674
H      4.270226   -1.436211   -1.441806
H     -0.232697    2.202531   -0.747197
H      1.662003    1.909120   -2.258323
H      1.716730   -2.311606   -1.364585
H     -0.171446   -2.017406    0.145594
H     -1.988423   -1.594908    1.756214
H     -3.926060   -0.094512    2.912230
H     -5.323022    1.965179    3.436104
H     -6.347703    4.402419    3.489083
