59

C     -7.549210   -4.193075    6.516938
C     -6.451370   -3.663469    5.839670
C     -6.550848   -3.244462    4.506479
C     -5.404624   -2.663703    3.805677
C     -4.477923   -1.893809    4.481456
C     -3.380323   -1.340692    3.824122
C     -3.170958   -1.543250    2.459559
C     -2.016597   -0.964024    1.770754
C     -0.793365   -0.824577    2.416616
C      0.308986   -0.274474    1.771944
C      0.225048    0.162883    0.447316
C      1.381213    0.741726   -0.215050
C      1.599044    0.563087   -1.583008
C      2.713362    1.108143   -2.210261
C      3.650992    1.853997   -1.507959
C      4.828121    2.422059   -2.144109
C      4.793385    2.884185   -3.463858
C      5.912968    3.434335   -4.079263
C      7.111502    3.558036   -3.388892
C      8.355894    4.143811   -3.977084
O      8.141086    4.598462   -5.303347
C      9.332578    5.168212   -5.829124
H     10.138121    4.412579   -5.880984
C      7.153393    3.101145   -2.067906
C      6.037407    2.534633   -1.461593
C      3.426951    2.037876   -0.139906
C      2.312740    1.494401    0.488053
C     -1.003189    0.026606   -0.197167
C     -2.098923   -0.522926    0.451076
C     -4.100179   -2.313327    1.780725
C     -5.206529   -2.871642    2.438627
C     -7.787452   -3.401794    3.886398
C     -8.886594   -3.954168    4.569974
C     -8.761993   -4.347895    5.896992
H     -9.609447   -4.754441    6.416235
H     -7.433738   -4.480724    7.549881
H     -5.494922   -3.575955    6.359079
H     -4.580531   -1.686286    5.538757
H     -2.690889   -0.742041    4.384312
H     -0.676818   -1.157731    3.443664
H      1.245155   -0.193663    2.323232
H      0.896662   -0.018151   -2.175178
H      2.845404    0.932526   -3.263809
H      3.864267    2.828794   -4.029759
H      5.846030    3.773487   -5.103515
H      8.666525    4.979448   -3.339192
H      9.129407    3.374044   -3.984829
H      9.655248    5.993572   -5.186834
H      9.114414    5.567147   -6.826473
H      8.076374    3.190348   -1.495000
H      6.115853    2.182581   -0.445000
H      4.130640    2.618000    0.454178
H      2.174654    1.666682    1.545043
H     -1.119832    0.356471   -1.214224
H     -3.036774   -0.610664   -0.078550
H     -3.978975   -2.505735    0.715994
H     -5.901534   -3.469538    1.862373
H     -7.934996   -3.089259    2.852690
H     -9.835171   -4.066782    4.058107
