FINAL HEAT OF FORMATION =     0.000000
 OpenBabel02212313473D

 31 35  0  0  0  0  0  0  0  0999 V2000
    3.2688    1.1140   -0.4088 C   0  0  0  0  0  0  0  0  0  0  0  0
    2.0590    0.4723   -0.0649 C   0  0  0  0  0  0  0  0  0  0  0  0
    2.2015   -0.9006   -0.3083 C   0  0  0  0  0  0  0  0  0  0  0  0
    3.7841   -1.4234   -1.0243 S   0  0  0  0  0  0  0  0  0  0  0  0
    4.2634    0.2586   -0.8803 C   0  0  0  0  0  0  0  0  0  0  0  0
    1.0711   -1.5953    0.0525 C   0  0  0  0  0  0  0  0  0  0  0  0
   -0.1322   -0.4859    0.6435 S   0  0  0  0  0  0  0  0  0  0  0  0
    0.8683    0.8703    0.4262 C   0  0  0  0  0  0  0  0  0  0  0  0
    0.8138   -3.0144   -0.0198 C   0  0  0  0  0  0  0  0  0  0  0  0
    2.0120   -4.2280    0.1505 S   0  0  0  0  0  0  0  0  0  0  0  0
    0.8759   -5.5162    0.0188 C   0  0  0  0  0  0  0  0  0  0  0  0
   -0.4152   -5.0213   -0.1296 C   0  0  0  0  0  0  0  0  0  0  0  0
   -0.4269   -3.5955   -0.1853 C   0  0  0  0  0  0  0  0  0  0  0  0
    1.1099   -6.8981    0.0597 C   0  0  0  0  0  0  0  0  0  0  0  0
    0.0463   -7.8175   -0.0246 C   0  0  0  0  0  0  0  0  0  0  0  0
   -1.2468   -7.3066   -0.1426 C   0  0  0  0  0  0  0  0  0  0  0  0
   -1.4710   -5.9341   -0.2026 C   0  0  0  0  0  0  0  0  0  0  0  0
   -2.4306   -8.5530   -0.1981 S   0  0  0  0  0  0  0  0  0  0  0  0
   -1.2494   -9.7527   -0.0964 C   0  0  0  0  0  0  0  0  0  0  0  0
    0.0254   -9.2556   -0.0101 C   0  0  0  0  0  0  0  0  0  0  0  0
   -1.6617  -11.5792   -0.0983 Br  0  0  0  0  0  0  0  0  0  0  0  0
    0.3422    2.6156    0.8226 Br  0  0  0  0  0  0  0  0  0  0  0  0
    5.6645    0.6070   -1.2559 C   0  0  0  0  0  0  0  0  0  0  0  0
    3.4658    2.3989   -0.2688 F   0  0  0  0  0  0  0  0  0  0  0  0
    0.9105   -9.8774    0.0618 H   0  0  0  0  0  0  0  0  0  0  0  0
   -1.3379   -3.0252   -0.3202 H   0  0  0  0  0  0  0  0  0  0  0  0
    2.1296   -7.2684    0.1620 H   0  0  0  0  0  0  0  0  0  0  0  0
   -2.4866   -5.5575   -0.3010 H   0  0  0  0  0  0  0  0  0  0  0  0
    5.8801    0.3021   -2.2850 H   0  0  0  0  0  0  0  0  0  0  0  0
    5.8419    1.6837   -1.1759 H   0  0  0  0  0  0  0  0  0  0  0  0
    6.3686    0.0998   -0.5873 H   0  0  0  0  0  0  0  0  0  0  0  0
  1  2  1  0  0  0  0
  2  8  2  0  0  0  0
  2  3  1  0  0  0  0
  3  6  2  0  0  0  0
  4  3  1  0  0  0  0
  5  1  2  0  0  0  0
  5  4  1  0  0  0  0
  6  7  1  0  0  0  0
  6  9  1  0  0  0  0
  8  7  1  0  0  0  0
  9 10  1  0  0  0  0
 10 11  1  0  0  0  0
 11 14  2  0  0  0  0
 12 11  1  0  0  0  0
 13  9  2  0  0  0  0
 13 12  1  0  0  0  0
 14 27  1  0  0  0  0
 15 14  1  0  0  0  0
 15 20  1  0  0  0  0
 16 18  1  0  0  0  0
 16 15  2  0  0  0  0
 17 12  2  0  0  0  0
 17 16  1  0  0  0  0
 18 19  1  0  0  0  0
 19 20  2  0  0  0  0
 19 21  1  0  0  0  0
 20 25  1  0  0  0  0
 22  8  1  0  0  0  0
 23  5  1  0  0  0  0
 23 30  1  0  0  0  0
 24  1  1  0  0  0  0
 26 13  1  0  0  0  0
 28 17  1  0  0  0  0
 29 23  1  0  0  0  0
 31 23  1  0  0  0  0
M  END
