200

C     -3.197721    0.292516  -13.875313
C     -2.180315    0.294261  -12.910970
C     -1.999422    1.425967  -12.088118
C     -2.549868    2.645547  -12.525593
C     -3.610192    2.629793  -13.434099
C     -4.062610    1.400723  -13.952836
C     -2.691716    1.838558   -9.720815
C     -3.088244    1.194264   -8.546079
C     -2.553610   -0.063148   -8.214193
C     -1.459624   -0.546831   -8.960940
C     -1.081012    0.085421  -10.155699
C     -1.806787    1.197795  -10.619895
C     -4.002655   -0.404595   -6.170734
C     -4.843197   -1.214441   -5.398501
C     -4.975703   -2.584237   -5.684162
C     -4.249050   -3.122258   -6.759271
C     -3.426540   -2.310558   -7.539842
C     -3.289402   -0.941718   -7.259182
C     -5.826467   -3.281426   -3.435975
C     -6.389096   -4.240161   -2.594851
C     -6.923655   -5.429152   -3.121942
C     -7.002746   -5.577493   -4.517047
C     -6.457806   -4.602052   -5.362105
C     -5.801691   -3.474199   -4.825608
C     -7.683504   -6.393026   -0.946477
C     -7.407296   -7.293794    0.086992
C     -6.548024   -8.385498   -0.136828
C     -6.160786   -8.681177   -1.454518
C     -6.454832   -7.789941   -2.490185
C     -7.123201   -6.584478   -2.221144
C     -5.320232   -8.191520    2.024245
C     -4.426780   -8.690573    2.960935
C     -4.010131  -10.025439    2.901440
C     -4.544894  -10.877068    1.925820
C     -5.445430  -10.370576    0.972135
C     -5.832473   -9.016943    1.001252
C     -1.612546  -10.033533    3.514618
C     -0.618317  -10.155524    4.485062
C     -0.916028  -10.690226    5.750182
C     -2.212516  -11.191876    5.988092
C     -3.209053  -11.074647    5.012764
C     -2.920866  -10.459972    3.788704
C     -0.365913  -10.028981    8.095488
C      0.566520   -9.586887    9.036218
C      1.945909   -9.637383    8.758980
C      2.371613  -10.258428    7.570565
C      1.435191  -10.700259    6.625204
C      0.057163  -10.536082    6.853795
C      2.735019   -8.792503   10.998863
C      3.461514   -7.857402   11.745771
C      4.365644   -6.985736   11.111380
C      4.594952   -7.134458    9.732800
C      3.872316   -8.065584    8.989747
C      2.898368   -8.870198    9.603702
C      4.111709   -5.034527   12.664553
C      4.517107   -3.759119   13.071527
C      5.744343   -3.232293   12.640467
C      6.617597   -4.056942   11.909060
C      6.216093   -5.332108   11.510347
C      4.929113   -5.808473   11.826220
C      5.006018   -0.854651   12.461701
C      5.303317    0.497314   12.269447
C      6.625407    0.959789   12.365795
C      7.629063    0.054974   12.756889
C      7.332123   -1.297476   12.950801
C      6.021383   -1.779421   12.755343
C      6.075016    3.385673   11.997698
C      6.214072    4.541800   11.219026
C      7.248204    4.642830   10.274303
C      8.216146    3.627338   10.222194
C      8.081454    2.474069   10.998995
C      6.965898    2.309326   11.847330
C      8.340347    6.212241    8.624765
C      8.280945    6.907440    7.407816
C      7.059037    7.035851    6.731669
C      5.886475    6.562261    7.334848
C      5.942298    5.885178    8.550113
C      7.176551    5.648198    9.182186
C      6.543987    6.584896    4.354996
C      6.382026    6.989290    3.036380
C      6.677202    8.309338    2.652045
C      7.181897    9.202832    3.616639
C      7.358134    8.785847    4.945271
C      7.011975    7.480784    5.321898
C      6.495730    7.890416    0.191095
C      5.829014    8.111433   -1.012167
C      4.967788    9.213857   -1.161273
C      4.914287   10.166264   -0.122281
C      5.576266    9.936025    1.090055
C      6.310621    8.754187    1.281511
C      4.252730    8.620606   -3.515140
C      3.226215    8.364377   -4.431616
C      1.907921    8.757016   -4.151023
C      1.648277    9.473646   -2.975190
C      2.662428    9.704480   -2.044200
C      3.973829    9.238876   -2.279917
C      0.650213    6.902991   -5.239415
C     -0.486347    6.411103   -5.886799
C     -1.497041    7.287229   -6.302969
C     -1.353479    8.665098   -6.079742
C     -0.226830    9.153291   -5.407550
C      0.781497    8.277148   -4.980950
C     -3.650944    6.024409   -6.268292
C     -4.737411    5.441388   -6.928004
C     -4.864716    5.559845   -8.327383
C     -3.897992    6.304011   -9.034140
C     -2.827663    6.902590   -8.365043
C     -2.687033    6.749757   -6.982461
C     -6.441364    5.342153  -10.257728
C     -7.123580    4.526380  -11.156340
C     -7.273232    3.139403  -10.908237
C     -6.957425    2.687970   -9.603927
C     -6.262381    3.511056   -8.709231
C     -5.908405    4.815791   -9.077023
C     -6.900906    0.848768  -11.890530
C     -5.937635    0.359447  -12.774854
C     -5.528680    1.156843  -13.863652
C     -6.408040    2.168963  -14.283495
C     -7.369939    2.653317  -13.387746
C     -7.384522    2.165119  -12.062006
H     -3.495509   -0.652046  -14.314418
H     -1.744613   -0.662982  -12.644521
H     -2.355197    3.557469  -11.975928
H     -4.239137    3.513035  -13.492950
H     -3.264302    2.708818  -10.009949
H     -3.890503    1.629666   -7.973572
H     -0.983777   -1.474423   -8.690984
H     -0.343252   -0.395076  -10.783604
H     -3.924054    0.646981   -5.916890
H     -5.407931   -0.761352   -4.589908
H     -4.289460   -4.180975   -6.981830
H     -2.922643   -2.755164   -8.387719
H     -5.323036   -2.433944   -2.986244
H     -6.280967   -4.104871   -1.527033
H     -7.427767   -6.474353   -4.950463
H     -6.497546   -4.757692   -6.431422
H     -8.229444   -5.484963   -0.721032
H     -7.755676   -7.065093    1.083137
H     -5.505793   -9.518594   -1.666174
H     -6.013539   -7.967943   -3.464883
H     -5.550067   -7.129848    2.047716
H     -4.000989   -8.020487    3.700680
H     -4.219279  -11.905046    1.859449
H     -5.799724  -11.026685    0.188186
H     -1.387425   -9.538046    2.579989
H      0.355166   -9.736193    4.276963
H     -2.469007  -11.610538    6.953724
H     -4.218208  -11.395081    5.240312
H     -1.416107   -9.879356    8.300868
H      0.201421   -9.099232    9.934872
H      3.425091  -10.333985    7.338143
H      1.793251  -11.104373    5.688706
H      2.007018   -9.415459   11.501597
H      3.279274   -7.781902   12.809975
H      5.263156   -6.466633    9.208030
H      4.006001   -8.081400    7.914610
H      3.113254   -5.368716   12.923131
H      3.831325   -3.158098   13.657379
H      7.567697   -3.680376   11.556059
H      6.878707   -5.916623   10.882687
H      3.989937   -1.187374   12.282871
H      4.503476    1.151674   11.941654
H      8.655740    0.387753   12.862817
H      8.136771   -1.983431   13.190503
H      5.222992    3.305292   12.662932
H      5.463229    5.316351   11.298911
H      9.022376    3.668359    9.498330
H      8.783675    1.664851   10.846086
H      9.304934    6.060884    9.095618
H      9.197410    7.273817    6.956531
H      4.936437    6.651761    6.823310
H      5.027840    5.448412    8.934242
H      6.273301    5.570404    4.633990
H      5.970154    6.281525    2.328885
H      7.417193   10.224886    3.346370
H      7.727590    9.488468    5.681488
H      7.086019    6.986093    0.303148
H      5.909981    7.352855   -1.780769
H      4.301388   11.054489   -0.214875
H      5.423409   10.625343    1.907131
H      5.252086    8.280010   -3.751619
H      3.450967    7.821513   -5.339246
H      0.635015    9.775493   -2.732159
H      2.391234   10.158590   -1.102783
H      1.405566    6.202791   -4.900585
H     -0.582113    5.346490   -6.058082
H     -2.126168    9.354314   -6.403392
H     -0.146594   10.220009   -5.214590
H     -3.550405    5.900124   -5.195943
H     -5.470323    4.888576   -6.349398
H     -3.929599    6.372266  -10.111828
H     -2.084033    7.452458   -8.932897
H     -6.256149    6.370281  -10.532986
H     -7.406772    4.978740  -12.094887
H     -7.131607    1.669267   -9.289966
H     -5.914851    3.093673   -7.773693
H     -6.986990    0.331143  -10.941707
H     -5.278395   -0.407706  -12.395556
H     -6.175069    2.738889  -15.171027
H     -7.858770    3.585493  -13.648342
