132

N      1.836737    1.681059   -0.535089
C      3.009151    1.154652    0.216259
C      2.931532   -0.332922    0.674719
N      1.788697   -0.804492    1.474663
C      1.816510    3.161693   -0.494922
C      1.431376    3.756152    0.862150
C     -0.059989    3.862160    1.078055
O     -0.876940    4.169716    0.220718
O     -0.340842    3.703456    2.403864
C     -1.654904    4.114760    2.828033
C     -2.747178    3.115310    2.467785
O     -2.503481    1.868479    3.141034
C     -3.579681    1.279529    3.724174
O     -4.692645    1.775875    3.828938
C     -3.222428   -0.088477    4.256039
C     -2.573578   -1.001938    3.215219
C      1.929243    1.199357   -1.938540
C      0.644871    1.351671   -2.763497
C      0.895746    0.891813   -4.180328
O      1.919623    0.351529   -4.576879
O     -0.174419    1.189718   -4.966527
C      0.010838    0.879960   -6.356815
C     -1.230712    1.295309   -7.141593
O     -2.288016    0.338349   -6.944196
C     -3.175738    0.605709   -5.944810
O     -3.174707    1.599663   -5.234923
C     -4.177312   -0.521098   -5.869303
C     -5.112220   -0.375590   -4.684060
H     -5.727220    0.522820   -4.778177
C      1.521119    0.001889    2.679300
C      2.093852   -0.647734    3.940813
C      3.500217   -0.278685    4.334566
O      4.067378   -0.789697    5.297275
O      4.054010    0.688655    3.560571
C      5.417586    1.006994    3.895534
C      5.990479    1.912926    2.808677
O      6.050794    1.226754    1.542805
C      7.111117    0.384747    1.378750
O      8.002636    0.219211    2.196074
C      7.016950   -0.285172    0.030205
C      8.003130   -1.429582   -0.111822
H      7.804565   -2.210071    0.629376
C      0.560290   -1.066161    0.702214
C      0.653507   -2.234908   -0.279076
C      0.828929   -3.546790    0.439898
O      0.326754   -3.839930    1.518347
O      1.591035   -4.388543   -0.310401
C      1.803164   -5.685092    0.264050
C      2.220744   -6.666307   -0.826186
O      3.524395   -6.337292   -1.336141
C      3.554992   -5.740163   -2.560046
O      2.579576   -5.406464   -3.219362
C      4.979098   -5.525341   -3.012167
C      5.771802   -6.819491   -3.022836
H      6.688260   -6.702649   -3.604165
C     -3.558727   -1.747520    2.301620
C     -4.328362   -0.875894    1.308886
C     -3.457634   -0.301546    0.212874
O     -2.468913   -0.840641   -0.257444
O     -3.979102    0.878939   -0.221187
C     -3.267087    1.511682   -1.296351
C     -4.167287    2.554929   -1.954188
O     -4.492085    3.601643   -1.016840
C     -5.717430    3.524057   -0.423060
O     -6.557786    2.661755   -0.633616
C     -5.898351    4.707199    0.503239
C     -7.074770    4.522754    1.446662
H     -7.188463    5.399504    2.091153
H      3.921768    1.281271   -0.383654
H      3.194121    1.752805    1.110955
H      3.065116   -0.976050   -0.202141
H      3.834210   -0.528532    1.267439
H      1.119696    3.555885   -1.241162
H      2.806648    3.540736   -0.776672
H      1.815734    4.784625    0.917722
H      1.883082    3.215424    1.699598
H     -1.601550    4.225106    3.916001
H     -1.880565    5.103374    2.406875
H     -3.716235    3.547417    2.738082
H     -2.747302    2.900556    1.397692
H     -2.532507    0.072312    5.093763
H     -4.123854   -0.554953    4.663959
H     -1.858239   -0.446440    2.604162
H     -1.999160   -1.761475    3.759915
H      2.766750    1.695001   -2.452241
H      2.169541    0.127375   -1.940881
H     -0.162199    0.748742   -2.331371
H      0.323152    2.396674   -2.810054
H      0.876407    1.438205   -6.729204
H      0.182477   -0.197687   -6.463663
H     -1.556885    2.308935   -6.885342
H     -1.002775    1.278432   -8.212656
H     -4.757648   -0.536918   -6.797802
H     -3.628738   -1.463168   -5.778131
H     -5.780325   -1.239291   -4.613242
H     -4.552021   -0.296418   -3.749090
H      0.438065    0.062466    2.849152
H      1.826100    1.046009    2.582715
H      2.039254   -1.742402    3.860415
H      1.460325   -0.346586    4.786706
H      5.427161    1.534312    4.857907
H      6.000269    0.083212    3.970187
H      6.981197    2.292645    3.086699
H      5.333378    2.775711    2.660383
H      7.205073    0.466038   -0.742986
H      6.003187   -0.676513   -0.097105
H      7.929136   -1.877136   -1.107577
H      9.031939   -1.086671    0.033183
H      0.221454   -0.167677    0.181335
H     -0.240565   -1.326732    1.400699
H      1.462565   -2.090203   -1.000024
H     -0.275511   -2.312827   -0.858584
H      2.591109   -5.596110    1.018079
H      0.882472   -6.055495    0.730524
H      1.468150   -6.708537   -1.621992
H      2.300622   -7.670941   -0.399478
H      4.943091   -5.121471   -4.031846
H      5.448597   -4.767604   -2.376188
H      5.190883   -7.636558   -3.459800
H      6.053826   -7.115778   -2.008417
H     -4.278293   -2.290931    2.924457
H     -2.992162   -2.505017    1.748871
H     -4.850102   -0.069484    1.828236
H     -5.092075   -1.486047    0.810731
H     -2.376646    1.989388   -0.877311
H     -2.967460    0.771566   -2.048758
H     -5.070116    2.089632   -2.363213
H     -3.634965    3.028590   -2.784117
H     -6.048011    5.602850   -0.110546
H     -4.986261    4.836903    1.094825
H     -6.929204    3.646691    2.082292
H     -8.006460    4.382790    0.892166
