107

C      3.367035    1.217878   -5.391953
H      3.914787    2.006841   -5.913747
O      4.276544    0.401727   -4.682599
C      5.227216   -0.098670   -5.639265
C      6.282216   -0.983275   -4.979487
O      7.156487   -0.279335   -4.082093
C      6.530495    0.216260   -2.888765
C      5.824625   -0.868804   -2.031916
O      5.280444   -0.220383   -0.867826
C      4.670964   -1.219977   -0.078603
C      4.196396   -0.698089    1.287292
O      3.354283    0.377213    1.505490
C      2.257886    1.080465    1.035700
C      1.848253    1.369440   -0.455994
O      0.797809    2.320420   -0.302254
C      0.183609    2.731931   -1.505949
O     -0.412555    1.620927   -2.121897
C     -0.962023    2.006090   -3.388718
C     -0.150547    1.365684   -4.469375
C     -2.416143    1.585932   -3.466178
O     -2.509066    0.142297   -3.298251
C     -3.816800   -0.323567   -3.684949
C     -3.696412   -1.181351   -4.888783
C     -4.535993   -1.045886   -2.535476
O     -3.691729   -2.103738   -2.018734
C     -4.494395   -3.103934   -1.382244
C     -4.218970   -4.408653   -2.010924
C     -4.529434   -3.146295    0.142154
C     -3.264080   -3.277772    1.033244
C     -2.431284   -2.027286    1.296723
O     -1.379327   -2.342492    2.196672
C     -1.627119   -2.092145    3.613379
C     -1.849704   -0.648720    4.124669
O     -0.803799    0.278684    3.757339
C     -0.179650    0.656375    5.002328
C      0.804842    1.812405    4.841447
O      0.066684    2.940748    4.392312
C      0.623574    3.619035    3.258020
C      2.020213    4.129921    3.513079
O      2.490439    4.776554    2.330329
H      3.311402    5.201385    2.573658
C      1.975444    5.163527    4.598217
C      1.299923    2.143748    6.217535
C     -3.198803   -0.019559    3.859450
C     -1.657570   -1.509744    0.055152
H      2.826120    0.588467   -6.127658
H      2.709616    1.659162   -4.665468
H      5.680577    0.744525   -6.156899
H      4.714104   -0.708205   -6.353655
H      5.849171   -1.870888   -4.520630
H      6.939944   -1.337077   -5.756389
H      5.853520    1.049067   -3.086890
H      7.341424    0.637347   -2.321123
H      5.026268   -1.325478   -2.635263
H      6.584539   -1.609420   -1.723305
H      3.813688   -1.618241   -0.587052
H      5.378995   -2.038300    0.139996
H      3.758155   -1.501110    1.805488
H      5.062068   -0.448678    1.963817
H      1.402628    0.753561    1.563678
H      2.430377    2.056896    1.521983
H      1.546976    0.416726   -0.855039
H      2.672661    1.779354   -0.954461
H      0.861045    3.293623   -2.156873
H     -0.602094    3.429240   -1.203502
H     -0.947247    3.097150   -3.493403
H      0.574094    0.680477   -4.061641
H      0.385280    2.141104   -5.018400
H     -0.802440    0.803101   -5.149281
H     -2.993994    2.077542   -2.674448
H     -2.806663    1.895016   -4.443983
H     -4.426952    0.526757   -3.934445
H     -3.396324   -2.205245   -4.616320
H     -4.673913   -1.218437   -5.384802
H     -2.990125   -0.754609   -5.592860
H     -5.503827   -1.407247   -2.955727
H     -4.736296   -0.354125   -1.725914
H     -5.523546   -2.905331   -1.589308
H     -3.164736   -4.725176   -1.999929
H     -4.507085   -4.331062   -3.061223
H     -4.871662   -5.159039   -1.548603
H     -5.083716   -2.290385    0.477450
H     -5.107131   -3.988590    0.395827
H     -3.627025   -3.583274    2.011896
H     -2.635774   -4.096494    0.689648
H     -3.070439   -1.243266    1.689947
H     -0.757505   -2.455748    4.089171
H     -2.439999   -2.682381    3.952160
H     -1.802839   -0.819619    5.180260
H     -0.956212    0.904295    5.744733
H      0.323201   -0.224066    5.366271
H      1.654058    1.550311    4.189071
H      0.591992    3.002939    2.358343
H     -0.004806    4.466851    3.071025
H      2.707283    3.310144    3.769213
H      1.178580    4.922218    5.310785
H      2.929659    5.191182    5.110516
H      1.799195    6.149888    4.161631
H      0.547394    2.746363    6.710893
H      2.218786    2.738585    6.171464
H      1.461980    1.246634    6.813454
H     -4.007291   -0.756633    3.826071
H     -3.219769    0.618157    2.961683
H     -3.397475    0.641805    4.697803
H     -0.697972   -1.093955    0.316849
H     -2.217746   -0.715893   -0.440310
H     -1.490680   -2.344229   -0.653711
