80

C      0.293896   -4.539482    3.697620
C     -1.069124   -4.631443    3.405679
C     -1.966411   -3.663799    3.891959
C     -1.505673   -2.767728    4.874458
C     -0.137275   -2.661599    5.147959
C      0.792907   -3.462652    4.456188
C     -3.898480   -4.371761    2.420527
C     -4.698076   -4.052913    1.312703
C     -4.807233   -2.719085    0.869636
C     -4.278958   -1.705887    1.693237
C     -3.493191   -2.022627    2.798746
C     -3.204285   -3.361879    3.113461
C     -5.529771   -1.086262   -0.912135
C     -5.228632   -0.589516   -2.184454
C     -4.593532   -1.409637   -3.136434
C     -4.517987   -2.789579   -2.869752
C     -4.768885   -3.274360   -1.582699
C     -5.152462   -2.394447   -0.551620
C     -3.961850    0.492459   -4.690129
C     -2.920419    1.258217   -5.237296
C     -1.604375    0.754490   -5.273237
C     -1.409215   -0.601207   -4.948643
C     -2.442576   -1.361319   -4.408837
C     -3.708137   -0.793319   -4.173396
C      0.858713    1.159195   -5.625569
C      2.002072    1.718196   -5.045911
C      1.893242    2.830432   -4.189651
C      0.664828    3.517819   -4.158983
C     -0.486283    2.928573   -4.690523
C     -0.417202    1.666896   -5.312347
C      2.424386    3.335288   -1.799469
C      3.191728    3.050536   -0.674279
C      4.454660    2.441563   -0.796524
C      5.002919    2.312210   -2.088343
C      4.228151    2.598562   -3.223648
C      2.890174    3.020092   -3.089279
C      5.597907    0.425006    0.182112
C      5.582093   -0.524635    1.209555
C      4.921723   -0.250518    2.424684
C      4.583858    1.092214    2.692214
C      4.657577    2.057405    1.684250
C      5.011827    1.690537    0.372972
C      3.772578   -1.131027    4.511514
C      2.729423   -1.922930    5.012330
C      2.197380   -2.976930    4.244755
C      2.891393   -3.352379    3.080016
C      3.908950   -2.550060    2.566760
C      4.286537   -1.357985    3.217694
H      0.973122   -5.210883    3.187131
H     -1.380374   -5.356358    2.664916
H     -2.180045   -2.045841    5.317880
H      0.195362   -1.848925    5.780956
H     -3.735520   -5.414168    2.663302
H     -5.136256   -4.861204    0.742154
H     -4.328435   -0.664424    1.407028
H     -2.984128   -1.209398    3.299399
H     -5.911374   -0.397310   -0.169745
H     -5.348065    0.472270   -2.353017
H     -4.109677   -3.471105   -3.605133
H     -4.503215   -4.301415   -1.373294
H     -4.936965    0.948082   -4.576358
H     -3.127570    2.279189   -5.530039
H     -0.423451   -1.045515   -4.953564
H     -2.188242   -2.342888   -4.032511
H      0.964136    0.235559   -6.179986
H      2.932651    1.175370   -5.141797
H      0.556364    4.427066   -3.581594
H     -1.437696    3.388940   -4.461712
H      1.405263    3.656045   -1.631937
H      2.715014    3.170490    0.288873
H      5.992080    1.896065   -2.227585
H      4.644234    2.391808   -4.201055
H      5.931119    0.104942   -0.795755
H      5.957829   -1.515044    0.991537
H      4.117049    1.383364    3.621994
H      4.285479    3.051248    1.897740
H      4.087905   -0.275211    5.092464
H      2.257639   -1.631570    5.942387
H      2.547853   -4.178953    2.471197
H      4.276542   -2.800411    1.582428
